*Heading
 Smoothed main surface
** Job name: CAE-SMOOTH Model name: Model-1
*Preprint, echo=NO, model=NO, history=NO, contact=NO
*RESTART,WRITE,FREQUENCY=50
** ----------------------------------------------------------------
** 
** PART INSTANCE: DIE-1
** 
*NODE, NSET=NREF
99999,  0.5 , 0.0
*Node,NSET=CONTACT
      1, 0.0999990031, -0.0214000009
      2,         0.25, -0.0214000009
      3, 0.0999990031,  0.310000002
      4,         0.25,  0.409999996
      5,  0.200000003,  0.409999996
      6,         0.25, -0.128399998
      7, 0.0666000023, -0.128399998
      8, 0.0666000023, -0.180000007
      9,         0.25, -0.180000007
     10, 0.0856999978, -0.0711999983
     11,  0.137677938, -0.0214000009
     12,  0.174999505, -0.0214000009
     13,  0.212663621, -0.0214000009
     14,         0.25, 0.0236813333
     15,         0.25, 0.0710877031
     16,         0.25,  0.121053517
     17,         0.25,  0.173695609
     18,         0.25,  0.229018584
     19,         0.25,  0.286938131
     20,         0.25,  0.347316086
** ... 145 like lines cut
*Element, type=CAX4T,ELSET=CONTACT
 1,  79,  80,  84,  83
 2,  80,  28,  85,  84
 3,  28,  29,  86,  85
 4,  29,  30,  87,  86
 5,  30,  31,  88,  87
 6,  31,   1,  11,  88
 7,  83,  84,  89,  82
 8,  84,  85,  90,  89
 9,  85,  86,  91,  90
10,  86,  87,  92,  91
11,  87,  88,  93,  92
12,  88,  11,  12,  93
13,  82,  89,  94,  81
14,  89,  90,  95,  94
15,  90,  91,  96,  95
16,  91,  92,  97,  96
17,  92,  93,  98,  97
18,  93,  12,  13,  98
19,  81,  94,  18,  19
20,  94,  95,  17,  18
** ... 108 like lines cut
*Nset, nset=DIE-1__PickedSet2, generate
   1,  165,    1
*Elset, elset=DIE-1__PickedSet2, generate
   1,  128,    1
** Section: CONTACT
*Solid Section, elset=DIE-1__PickedSet2, material=RIGID
*RIGID BODY, ELSET=DIE-1__PickedSet2, ISOTHERMAL=YES,
REF NODE=99999
** ----------------------------------------------------------------
** 
** PART INSTANCE: METALBAR-1
** 
*Node,NSET=ALL
    166,           0.,           0.
    167, 0.00999999978,           0.
    168, 0.0199999996,           0.
    169, 0.0299999993,           0.
    170, 0.0400000028,           0.
    171, 0.0500000007,           0.
    172, 0.0600000024,           0.
    173, 0.0700000003,           0.
    174, 0.0800000057,           0.
    175, 0.0900000036,           0.
    176,  0.100000001,           0.
    177,           0., 0.0100000007
    178, 0.00999999978, 0.00999999978
    179, 0.0199999996, 0.00999999978
    180, 0.0299999993, 0.00999999978
    181, 0.0399999991, 0.00999999978
    182, 0.0500000007, 0.00999999978
    183, 0.0600000024, 0.00999999978
    184, 0.0700000003, 0.00999999978
    185, 0.0799999982, 0.00999999978
** ... 321 like lines cut
*Element, type=CAX4T,ELSET=WORK
129, 166, 167, 178, 177
130, 167, 168, 179, 178
131, 168, 169, 180, 179
132, 169, 170, 181, 180
133, 170, 171, 182, 181
134, 171, 172, 183, 182
135, 172, 173, 184, 183
136, 173, 174, 185, 184
137, 174, 175, 186, 185
138, 175, 176, 187, 186
139, 177, 178, 189, 188
140, 178, 179, 190, 189
141, 179, 180, 191, 190
142, 180, 181, 192, 191
143, 181, 182, 193, 192
144, 182, 183, 194, 193
145, 183, 184, 195, 194
146, 184, 185, 196, 195
147, 185, 186, 197, 196
148, 186, 187, 198, 197
** ... 280 like lines cut
*Nset, nset=METALBAR-1__PickedSet2, generate
 166,  506,    1
*Elset, elset=METALBAR-1__PickedSet2, generate
 129,  428,    1
** Section: WORK
*Solid Section, elset=METALBAR-1__PickedSet2, material=METAL
*System
*Nset, nset=TOP, generate
 496,  506,    1
*Elset, elset=TOP, generate
 419,  428,    1
*Nset, nset=AXIS, generate
 166,  496,   11
*Elset, elset=AXIS, generate
 129,  419,   10
*Nset, nset=ALL, generate
 166,  506,    1
*Elset, elset=ALL, generate
 129,  428,    1
*Nset, nset=CONTACT, generate
   1,  165,    1
*Elset, elset=CONTACT, generate
   1,  128,    1
*Nset, nset=BOT, generate
 166, 176,   1
*Elset, elset=BOT, generate
 129, 138,  1
*Nset, nset=SIDE, generate
 176,  506,   11
*Elset, elset=SIDE, generate
 138,  428,   10
*Elset, elset=_DIE-SURF_S4
  25,  41,  45,  49,  53,  57,  61,  65,  69,  73,  77,  81,  85,  89,  93,  97
 101, 105, 109, 113, 117, 121, 125
*Elset, elset=_DIE-SURF_S1, generate
 3,  6,  1
*Elset, elset=_DIE-SURF_S2
 40,
*Elset, elset=_DIE-SURF_S3, generate
 37,  40,   1
*Surface, type=ELEMENT, name=DIE-SURF
_DIE-SURF_S4, S4
_DIE-SURF_S1, S1
_DIE-SURF_S2, S2
_DIE-SURF_S3, S3
*Elset, elset=_METAL-SURF_S1, generate
129, 138,  1
*Elset, elset=_METAL-SURF_S2, generate
 138,  428,   10
*Surface, type=ELEMENT, name=METAL-SURF
_METAL-SURF_S1, S1
_METAL-SURF_S2, S2
** 
** MATERIALS
** 
*Material, name=METAL
*Elastic
 6.9e+10, 0.33
*PLASTIC
** STRAIN RATE APPX .1 **
60.E6,0.0   ,20.
90.E6,.125  ,20.
113.E6,.25  ,20.
124.E6,.375 ,20.
133.E6,0.5  ,20.
165.E6,1.0  ,20.
166.E6,2.0  ,20.
60.E6,0.    ,50.
80.E6,.125  ,50.
97.E6,.25   ,50.
110.E6,.375 ,50.
120.E6,0.5  ,50.
150.E6,1.0  ,50.
151.E6,2.0  ,50.
50.E6,0.0   ,100.
65.E6,.125  ,100,
81.5E6,.25  ,100.
91.E6,.375  ,100.
100.E6,0.5  ,100.
125.E6,1.0  ,100.
126.E6,2.0  ,100.
45.E6,0.0   ,150.
63.E6,.125  ,150.
75.E6,.25   ,150.
89.E6,.5    ,150.
110.E6,1.   ,150.
111.E6,2.   ,150.
*SPECIFIC HEAT
880., 
*DENSITY
2700., 
*CONDUCTIVITY
204.,0.
225.,300.
*EXPANSION,ZERO=20.0 
8.42E-5, 
*INELASTIC HEAT FRACTION
.9,
*Material, name=RIGID
*Elastic
 1e+10, 0.3
*PLASTIC
** STRAIN RATE APPX .1 **
60.E6,0.0   ,20.
90.E6,.125  ,20.
113.E6,.25  ,20.
124.E6,.375 ,20.
133.E6,0.5  ,20.
165.E6,1.0  ,20.
166.E6,2.0  ,20.
60.E6,0.    ,50.
80.E6,.125  ,50.
97.E6,.25   ,50.
110.E6,.375 ,50.
120.E6,0.5  ,50.
150.E6,1.0  ,50.
151.E6,2.0  ,50.
50.E6,0.0   ,100.
65.E6,.125  ,100,
81.5E6,.25  ,100.
91.E6,.375  ,100.
100.E6,0.5  ,100.
125.E6,1.0  ,100.
126.E6,2.0  ,100.
45.E6,0.0   ,150.
63.E6,.125  ,150.
75.E6,.25   ,150.
89.E6,.5    ,150.
110.E6,1.   ,150.
111.E6,2.   ,150.
*SPECIFIC HEAT
880., 
*DENSITY
2700., 
*CONDUCTIVITY
204.,0.
225.,300.
*EXPANSION,ZERO=20.0 
8.42E-5,
** 
** INTERACTION PROPERTIES
** 
*Surface Interaction, name=FRIC-INTER
*Friction
0.1,
*Gap Heat Generation
1.
** 
** INTERACTIONS
** 
** Interaction: INTER
*Contact Pair, interaction=FRIC-INTER
METAL-SURF, DIE-SURF
**
** INITIAL CONDITIONS
*INITIAL CONDITIONS,TYPE=TEMPERATURE
 ALL,20.0
*STEP,AMPLITUDE=RAMP,NLGEOM, UNSYMM=YES
STABILIZE WORKPIECE INSIDE DIE
*COUPLED TEMPERATURE-DISPLACEMENT,DELTMX=100.
.1,1. 
*BOUNDARY
NREF, 1, 2, 0.0
NREF, 6, 6, 0.0
NREF,11,11,20.0
AXIS,1,1,0.0
TOP,2,2,-.000125
ALL,11,11,20.0
*PRINT,CONTACT=YES
*OUTPUT,FIELD,VARIABLE=PRESELECT
*NODE OUTPUT,NSET=CONTACT
U
RF
NT
RFL
*ENERGY OUTPUT
*END STEP
**
*** step 2
**
*STEP,INC=800,AMPLITUDE=RAMP,NLGEOM, UNSYMM=YES
EXTRUSION
*COUPLED TEMPERATURE-DISPLACEMENT,DELTMX=100.
.1,10.
*BOUNDARY,OP=NEW 
NREF, 1, 2, 0.0
NREF, 6, 6, 0.0
NREF, 11,11,20.0 
AXIS,1,1,0.0
TOP,2,2,-.25
*PRINT,CONTACT=YES
*OUTPUT,FIELD,VARIABLE=PRESELECT
*NODE OUTPUT
 NT,
 U
RF
NT
RFL
*EL PRINT,ELSET=CONTACT,FREQUENCY=10
S
E
*ENERGY PRINT,FREQUENCY=1
*END STEP
**
*** step 3
**
*STEP,INC=200,AMPLITUDE=RAMP,NLGEOM, UNSYMM=YES
REMOVE CONTACT PAIRS
*COUPLED TEMPERATURE-DISPLACEMENT,DELTMX=100.
.1,.1,
*MODEL CHANGE,REMOVE, TYPE=CONTACT PAIR
 METAL-SURF,DIE-SURF
*PRINT,CONTACT=YES
*OUTPUT,FIELD,VARIABLE=PRESELECT
*NODE OUTPUT
U
RF
NT
RFL
*ENERGY PRINT,FREQUENCY=1
*END STEP
**
*** step 4
**
*STEP,INC=200,AMPLITUDE=RAMP,NLGEOM, UNSYMM=YES
LET WORKPIECE COOL DOWN
*COUPLED TEMPERATURE-DISPLACEMENT,DELTMX=100.
100.,10000.,
*FILM
BOT,F1,20.,10.
TOP,F3,20.,10.
SIDE,F2,20.,10.
*PRINT,CONTACT=YES
*OUTPUT,FIELD,VARIABLE=PRESELECT
*NODE OUTPUT
U
RF
NT
RFL
*ENERGY PRINT,FREQUENCY=1
*END STEP
