*Heading
** Job name: m_10 Model name: Model-1
** Generated by: Abaqus/CAE 2021
*Preprint, echo=NO, model=NO, history=NO, contact=NO
**
** PARTS
**
*Part, name=frame
*End Part
**  
**
** ASSEMBLY
**
*Assembly, name=Assembly
**  
*Instance, name=frame-1, part=frame
*Node
      1,         -20.,           0.
      2,         -10.,           0.
      3,           0.,          10.
      4,           0.,          20.
      5,           0.,         -20.
      6,           0.,         -10.
      7,         120.,         -90.
      8,         120.,        -110.
      9,         150.,         -80.
     10,         130.,         -80.
     11,         110.,         -80.
     12,          90.,         -80.
     13,          10.,           0.
     14,          20.,           0.
     15,          20.,          20.
     16,          20.,         -20.
     17,         150.,         -50.
     18,         120.,         -50.
     19,         120.,         -70.
     20,          90.,         -50.
** ... 359 like lines cut
*Element, type=CPS8R
1,   1,  27,  90,  32, 138, 139, 140, 141
2,  27,   2,  28,  90, 142, 143, 144, 139
3,  32,  90,  91,  31, 140, 145, 146, 147
4,  90,  28,  29,  91, 144, 148, 149, 145
5,  31,  91,  30,   4, 146, 150, 151, 152
6,  91,  29,   3,  30, 149, 153, 154, 150
 7,   2,  27,  92,  35, 142, 155, 156, 157
 8,  27,   1,  33,  92, 138, 158, 159, 155
 9,  35,  92,  34,   6, 156, 160, 161, 162
10,  92,  33,   5,  34, 159, 163, 164, 160
11,   7,  36,  93,  39, 165, 166, 167, 168
12,  36,   8,  37,  93, 169, 170, 171, 166
13,  39,  93,  38,  10, 167, 172, 173, 174
14,  93,  37,   9,  38, 171, 175, 176, 172
15,   8,  36,  94,  44, 169, 177, 178, 179
16,  36,   7,  40,  94, 165, 180, 181, 177
17,  44,  94,  95,  43, 178, 182, 183, 184
18,  94,  40,  41,  95, 181, 185, 186, 182
19,  43,  95,  42,  12, 183, 187, 188, 189
20,  95,  41,  11,  42, 186, 190, 191, 187
** ... 84 like lines cut
*Nset, nset=_PickedSet2, internal, generate
   1,  379,    1
*Elset, elset=_PickedSet2, internal, generate
   1,  104,    1
** Section: frame_section
*Solid Section, elset=_PickedSet2, material=steel
5.,
*End Instance
**  
*Nset, nset=_PickedSet4, internal, instance=frame-1
   2,   3,   6,  13,  28,  29,  35,  45,  51, 143, 148, 153, 157, 162, 192, 204
 211, 213
*Elset, elset=_PickedSet4, internal, instance=frame-1
  2,  4,  6,  7,  9, 21, 25, 28, 29
*Elset, elset=__PickedSurf7_S4, internal, instance=frame-1
 11, 13
*Elset, elset=__PickedSurf7_S2, internal, instance=frame-1, generate
 16,  20,   2
*Surface, type=ELEMENT, name=_PickedSurf7, internal
__PickedSurf7_S4, S4
__PickedSurf7_S2, S2
*End Assembly
** 
** MATERIALS
** 
*Material, name=steel
*Elastic
200000., 0.3
** 
** BOUNDARY CONDITIONS
** 
** Name: left_bc Type: Displacement/Rotation
*Boundary
_PickedSet4, 1, 1
_PickedSet4, 2, 2
** ----------------------------------------------------------------
** 
** STEP: my_step
** 
*Step, name=my_step, nlgeom=NO, inc=1000
*Static
0.01, 1., 1e-05, 1.
** 
** LOADS
** 
** Name: pressure   Type: Pressure
*Dsload
_PickedSurf7, P, 20.
** 
** OUTPUT REQUESTS
** 
*Restart, write, frequency=0
** 
** FIELD OUTPUT: F-Output-1
** 
*Output, field
*Node Output
CF, COORD, RF, U
*Element Output, directions=YES
LE, PE, S, PEEQ
** 
** HISTORY OUTPUT: H-Output-1
** 
*Output, history, variable=PRESELECT
*End Step
